26

C          0.37536       -1.41609       -2.26497
C          0.78524       -2.75343       -1.66919
C          2.03703       -2.62044       -0.80223
C          2.44653       -3.96835       -0.20646
C          3.69901       -3.83612        0.66159
C          4.10982       -5.18523        1.25384
C          5.36203       -5.05406        2.12239
C          5.77480       -6.40444        2.71036
H         -0.52172       -1.53450       -2.88072
H          1.17023       -1.00831       -2.89761
H          0.15388       -0.68756       -1.47851
H          0.96820       -3.46747       -2.48061
H         -0.04286       -3.14883       -1.06953
H          1.84972       -1.90296        0.00599
H          2.86085       -2.21976       -1.40541
H          2.63407       -4.68535       -1.01503
H          1.62255       -4.36909        0.39641
H          3.51075       -3.12109        1.47171
H          4.52251       -3.43328        0.05947
H          4.29822       -5.89984        0.44336
H          3.28617       -5.58846        1.85551
H          5.17265       -4.34191        2.93479
H          6.18502       -4.64809        1.52167
H          5.96446       -7.11635        1.89775
H          4.95167       -6.81112        3.31047
H          6.65092       -6.26283        3.30807
