26

C          2.03703       -2.62044       -0.80223
C          2.44653       -3.96835       -0.20646
C          3.69901       -3.83612        0.66159
C          4.10982       -5.18523        1.25384
C          5.36203       -5.05406        2.12239
C          5.77480       -6.40444        2.71036
C          7.02569       -6.27398        3.57892
C          7.44084       -7.61512        4.16250
H          1.84972       -1.90296        0.00599
H          2.86085       -2.21976       -1.40541
H          2.63407       -4.68535       -1.01503
H          1.62255       -4.36909        0.39641
H          3.51075       -3.12109        1.47171
H          4.52251       -3.43328        0.05947
H          4.29822       -5.89984        0.44336
H          3.28617       -5.58846        1.85551
H          5.17265       -4.34191        2.93479
H          6.18502       -4.64809        1.52167
H          5.96446       -7.11635        1.89775
H          4.95167       -6.81112        3.31047
H          6.83935       -5.56814        4.39671
H          7.85242       -5.86974        2.98328
H          6.64706       -8.03250        4.79022
H          8.33671       -7.49867        4.78036
H          7.66644       -8.33510        3.36934
H          1.16003       -2.76334       -1.39835
