   12
 
 O         -0.9091916588        2.1596245002       -1.4262893964
 H         -1.4014063877        1.2998822246       -1.5519318376
 H         -1.3044341565        2.7793254987       -2.0432830845
 O         -2.1895149342       -0.1224819486       -1.5388273544
 H         -2.4980066198       -0.2352988617       -0.6279566823
 H         -1.5691340352       -0.8741088068       -1.6620736804
 O         -1.0464474725        1.9562028136        1.3630319753
 H         -0.1041253138        1.8368634911        1.5784973022
 H         -1.0412080884        2.2265980124        0.4282871332
 O          1.8125897482        1.5837959890       -1.1982118557
 H          0.8952430081        1.8439143750       -1.3968764108
 H          1.8887816817        1.7164672456       -0.2394746566
