
 OpenBabel04171914573D

 23 22  0  0  0  0  0  0  0  0999 V2000
    3.0351    3.1161    0.5871 C   0  0  0  0  0  0  0  0  0  0  0  0
    3.5607    4.5488    0.6807 C   0  0  0  0  0  0  0  0  0  0  0  0
    4.5252    4.9235   -0.4565 C   0  0  0  0  0  0  0  0  0  0  0  0
    5.8282    4.1088   -0.4428 C   0  0  0  0  0  0  0  0  0  0  0  0
    6.7756    4.5777   -1.5583 C   0  0  0  0  0  0  0  0  0  0  0  0
    8.1284    3.8470   -1.5555 C   0  0  0  0  0  0  0  0  0  0  0  0
    8.0139    2.3511   -1.8502 C   0  0  0  0  0  0  0  0  0  0  0  0
    3.8553    2.3776    0.6922 H   0  0  0  0  0  0  0  0  0  0  0  0
    2.5175    2.9587   -0.3829 H   0  0  0  0  0  0  0  0  0  0  0  0
    2.3103    2.9365    1.4089 H   0  0  0  0  0  0  0  0  0  0  0  0
    4.0605    4.6973    1.6625 H   0  0  0  0  0  0  0  0  0  0  0  0
    2.6878    5.2355    0.6304 H   0  0  0  0  0  0  0  0  0  0  0  0
    4.7817    5.9990   -0.3365 H   0  0  0  0  0  0  0  0  0  0  0  0
    4.0104    4.7973   -1.4344 H   0  0  0  0  0  0  0  0  0  0  0  0
    6.3301    4.2410    0.5408 H   0  0  0  0  0  0  0  0  0  0  0  0
    5.5916    3.0369   -0.5897 H   0  0  0  0  0  0  0  0  0  0  0  0
    6.9807    5.6612   -1.4131 H   0  0  0  0  0  0  0  0  0  0  0  0
    6.2873    4.4474   -2.5490 H   0  0  0  0  0  0  0  0  0  0  0  0
    8.6340    3.9947   -0.5765 H   0  0  0  0  0  0  0  0  0  0  0  0
    8.7655    4.3016   -2.3450 H   0  0  0  0  0  0  0  0  0  0  0  0
    9.0298    1.9041   -1.8807 H   0  0  0  0  0  0  0  0  0  0  0  0
    7.5256    2.1891   -2.8346 H   0  0  0  0  0  0  0  0  0  0  0  0
    7.4374    1.8272   -1.0613 H   0  0  0  0  0  0  0  0  0  0  0  0
  1  2  1  0  0  0  0
  1  8  1  0  0  0  0
  1  9  1  0  0  0  0
  1 10  1  0  0  0  0
  2  3  1  0  0  0  0
  2 11  1  0  0  0  0
  2 12  1  0  0  0  0
  3  4  1  0  0  0  0
  3 13  1  0  0  0  0
  3 14  1  0  0  0  0
  4  5  1  0  0  0  0
  4 15  1  0  0  0  0
  4 16  1  0  0  0  0
  5  6  1  0  0  0  0
  5 17  1  0  0  0  0
  5 18  1  0  0  0  0
  6  7  1  0  0  0  0
  6 19  1  0  0  0  0
  6 20  1  0  0  0  0
  7 21  1  0  0  0  0
  7 22  1  0  0  0  0
  7 23  1  0  0  0  0
M  END
