G09/OPT/B3LYP/6-31G(D)
     RDKit          3D

 12 12  0  0  0  0  0  0  0  0999 V2000
    0.8050   -1.1416    0.0149 C   0  0  0  0  0  0  0  0  0  0  0  0
    1.3912    0.1263   -0.0021 C   0  0  0  0  0  0  0  0  0  0  0  0
    0.5862    1.2677   -0.0170 C   0  0  0  0  0  0  0  0  0  0  0  0
   -0.8050    1.1416   -0.0149 C   0  0  0  0  0  0  0  0  0  0  0  0
   -1.3912   -0.1262    0.0021 C   0  0  0  0  0  0  0  0  0  0  0  0
   -0.5862   -1.2677    0.0170 C   0  0  0  0  0  0  0  0  0  0  0  0
    1.4314   -2.0299    0.0264 H   0  0  0  0  0  0  0  0  0  0  0  0
    2.4738    0.2245   -0.0037 H   0  0  0  0  0  0  0  0  0  0  0  0
    1.0424    2.2544   -0.0303 H   0  0  0  0  0  0  0  0  0  0  0  0
   -1.4314    2.0299   -0.0264 H   0  0  0  0  0  0  0  0  0  0  0  0
   -2.4738   -0.2245    0.0037 H   0  0  0  0  0  0  0  0  0  0  0  0
   -1.0424   -2.2544    0.0303 H   0  0  0  0  0  0  0  0  0  0  0  0
  1  2  2  0
  1  6  1  0
  1  7  1  0
  2  3  1  0
  2  8  1  0
  3  4  2  0
  3  9  1  0
  4  5  1  0
  4 10  1  0
  5  6  2  0
  5 11  1  0
  6 12  1  0
M  END
