none
     RDKit          3D

 13 12  0  0  0  0  0  0  0  0999 V2000
    0.7391    1.4325   -0.1234 C   0  0  0  0  0  0  0  0  0  0  0  0
    1.6117   -1.4384    0.2758 C   0  0  0  0  0  0  0  0  0  0  0  0
    0.3833   -0.9446    0.4783 C   0  0  0  0  0  0  0  0  0  0  0  0
   -0.0526    0.4329    0.2985 C   0  0  0  0  0  0  0  0  0  0  0  0
   -1.4952    0.6930    0.6484 C   0  0  0  0  0  0  0  0  0  0  0  0
    0.3581    2.4437   -0.2301 H   0  0  0  0  0  0  0  0  0  0  0  0
    1.8108   -2.4920    0.4464 H   0  0  0  0  0  0  0  0  0  0  0  0
   -0.3853   -1.6408    0.8149 H   0  0  0  0  0  0  0  0  0  0  0  0
   -1.6891    0.4399    1.6965 H   0  0  0  0  0  0  0  0  0  0  0  0
   -1.7703    1.7441    0.5077 H   0  0  0  0  0  0  0  0  0  0  0  0
    1.7828    1.2892   -0.3781 H   0  0  0  0  0  0  0  0  0  0  0  0
    2.4458   -0.8325   -0.0575 H   0  0  0  0  0  0  0  0  0  0  0  0
   -2.1584    0.0923    0.0162 H   0  0  0  0  0  0  0  0  0  0  0  0
  1  4  2  3
  2  3  2  3
  3  4  1  0
  4  5  1  0
  1  6  1  0
  1 11  1  0
  2  7  1  0
  2 12  1  0
  3  8  1  0
  5  9  1  0
  5 10  1  0
  5 13  1  0
M  END
