none
     RDKit          3D

 11 10  0  0  0  0  0  0  0  0999 V2000
    0.3198   -0.9516    0.5248 C   0  0  0  0  0  0  0  0  0  0  0  0
   -0.1505    0.2900    0.3459 C   0  0  0  0  0  0  0  0  0  0  0  0
   -1.5428    0.7314    0.6838 C   0  0  0  0  0  0  0  0  0  0  0  0
   -2.6462    0.0876   -0.1403 C   0  0  0  0  0  0  0  0  0  0  0  0
   -2.5002   -0.7944   -0.9801 O   0  0  0  0  0  0  0  0  0  0  0  0
   -0.3027   -1.7456    0.9266 H   0  0  0  0  0  0  0  0  0  0  0  0
   -1.7534    0.5359    1.7411 H   0  0  0  0  0  0  0  0  0  0  0  0
   -1.6193    1.8140    0.5324 H   0  0  0  0  0  0  0  0  0  0  0  0
   -3.6572    0.4729    0.0796 H   0  0  0  0  0  0  0  0  0  0  0  0
    1.3381   -1.2068    0.2480 H   0  0  0  0  0  0  0  0  0  0  0  0
    0.5116    1.0418   -0.0784 H   0  0  0  0  0  0  0  0  0  0  0  0
  1  2  2  3
  2  3  1  0
  3  4  1  0
  4  5  2  0
  1  6  1  0
  1 10  1  0
  2 11  1  0
  3  7  1  0
  3  8  1  0
  4  9  1  0
M  END
