none
     RDKit          3D

  5  4  0  0  0  0  0  0  0  0999 V2000
   -1.5460    0.7312    0.6713 C   0  0  0  0  0  0  0  0  0  0  0  0
   -1.7339    0.4732    1.7158 H   0  0  0  0  0  0  0  0  0  0  0  0
   -1.6419    1.8112    0.5401 H   0  0  0  0  0  0  0  0  0  0  0  0
   -0.5364    0.4191    0.3951 H   0  0  0  0  0  0  0  0  0  0  0  0
   -2.2718    0.2212    0.0341 H   0  0  0  0  0  0  0  0  0  0  0  0
  1  2  1  0
  1  3  1  0
  1  4  1  0
  1  5  1  0
M  END
