none
     RDKit          3D

  9  8  0  0  0  0  0  0  0  0999 V2000
    0.3147   -0.9508    0.5131 C   0  0  0  0  0  0  0  0  0  0  0  0
   -0.1420    0.2971    0.3525 C   0  0  0  0  0  0  0  0  0  0  0  0
   -1.5367    0.7268    0.6695 C   0  0  0  0  0  0  0  0  0  0  0  0
   -0.3184   -1.7463    0.8937 H   0  0  0  0  0  0  0  0  0  0  0  0
   -2.1469   -0.0983    1.0503 H   0  0  0  0  0  0  0  0  0  0  0  0
   -1.5203    1.5170    1.4263 H   0  0  0  0  0  0  0  0  0  0  0  0
    1.3411   -1.2027    0.2644 H   0  0  0  0  0  0  0  0  0  0  0  0
    0.5294    1.0617   -0.0322 H   0  0  0  0  0  0  0  0  0  0  0  0
   -2.0188    1.1214   -0.2301 H   0  0  0  0  0  0  0  0  0  0  0  0
  1  2  2  3
  2  3  1  0
  1  4  1  0
  1  7  1  0
  2  8  1  0
  3  5  1  0
  3  6  1  0
  3  9  1  0
M  END
