7
cls=0 
     H      3.94694000      4.04199000      7.13258000       nan
     H      4.03783000      6.43946000      6.51401000       nan
     H      4.02072000      5.45714000      3.86742000       nan
     H      3.94860000      3.56054000      5.32400000       nan
     C      3.96882000      4.34696000      6.08603000 -268.6803
     C      4.01829000      5.64385000      5.76243000 -270.6169
     O      4.05306000      6.18131000      4.51361000 -512.2072
