11
cls=0 
     H      5.00099000      7.21156000      3.77432000       nan
     H      5.11435000      8.03682000      5.35069000       nan
     H      3.95877000      6.69863000      5.12729000       nan
     H      5.95353000      4.71287000      3.58440000       nan
     H      6.63754000      3.96318000      5.04942000       nan
     H      4.88180000      4.23947000      4.92957000       nan
     H      7.04123000      6.45099000      5.06186000       nan
     H      6.01150000      5.96063000      6.41560000       nan
     C      4.97114000      7.05599000      4.86699000 -268.7440
     C      6.04062000      6.05408000      5.31435000 -269.0026
     C      5.87052000      4.66666000      4.68489000 -268.7449
