13
cls=0 
     H      5.00992000      7.12336000      3.54021000       nan
     H      5.02885000      8.05237000      5.06575000       nan
     H      3.95635000      6.63939000      4.89787000       nan
     H      5.73443000      3.94763000      6.84031000       nan
     H      5.98414000      5.12583000      4.74957000       nan
     H      7.04365000      6.54852000      4.86453000       nan
     H      5.89919000      4.86939000      8.45979000       nan
     H      6.24201000      7.15595000      8.21530000       nan
     C      4.94962000      7.04167000      4.63732000 -268.8019
     C      6.06571000      6.13731000      5.17616000 -269.2073
     C      6.06488000      6.02772000      6.67676000 -270.6599
     C      5.89165000      4.88941000      7.36559000 -268.4978
     O      6.26070000      7.25576000      7.25105000 -512.0128
