9
cls=0 
     H      4.38487000      3.95889000      5.85283000       nan
     H      3.61458000      6.62527000      3.61838000       nan
     H      4.43656000      5.03819000      3.61583000       nan
     H      5.38542000      6.55284000      3.64131000       nan
     H      4.48092000      7.04111000      6.01509000       nan
     H      4.40029000      5.03183000      7.38417000       nan
     C      4.47300000      6.06076000      4.02504000 -269.0061
     C      4.45423000      6.05714000      5.52744000 -269.2125
     C      4.41105000      4.96234000      6.29201000 -268.7851
