10
cls=0 
     H      4.38177000      3.82143000      5.78284000       nan
     H      4.47104000      7.08895000      7.08523000       nan
     H      3.61582000      6.59846000      3.70974000       nan
     H      4.43602000      5.00758000      3.62256000       nan
     H      5.38418000      6.52498000      3.72862000       nan
     H      4.39511000      4.79492000      7.37744000       nan
     C      4.47294000      6.00761000      4.07507000 -269.0078
     C      4.45396000      5.92653000      5.57046000 -270.6939
     C      4.40816000      4.78967000      6.28247000 -268.4497
     O      4.49011000      7.17857000      6.12000000 -511.9757
