14
cls=0 
     H      4.79788000      7.08571000      3.55920000       nan
     H      4.99774000      8.08447000      5.03657000       nan
     H      3.80724000      6.74760000      5.00244000       nan
     H      7.11939000      6.84878000      3.84234000       nan
     H      5.77632000      3.91553000      6.81079000       nan
     H      5.68020000      5.09071000      4.78379000       nan
     H      5.84980000      4.82810000      8.44080000       nan
     H      6.09753000      7.14117000      8.20446000       nan
     C      4.80661000      7.06646000      4.66376000 -268.9408
     C      5.88982000      6.10965000      5.16542000 -270.6617
     C      5.91937000      6.01904000      6.67304000 -270.6520
     C      5.83858000      4.86277000      7.34633000 -268.6270
     O      7.19276000      6.53386000      4.75491000 -511.1455
     O      6.02971000      7.25324000      7.24402000 -512.0258
