12
cls=0 
     H      4.78932000      7.17514000      3.77616000       nan
     H      4.95098000      8.02399000      5.33597000       nan
     H      3.76554000      6.69515000      5.15962000       nan
     H      5.72842000      4.71042000      3.58936000       nan
     H      6.46096000      3.97601000      5.03881000       nan
     H      4.69091000      4.22261000      4.96096000       nan
     H      7.23446000      6.66193000      4.08545000       nan
     H      5.81926000      5.95102000      6.41064000       nan
     C      4.77426000      7.03939000      4.87400000 -268.8444
     C      5.85338000      6.04652000      5.31105000 -270.4988
     C      5.66833000      4.65862000      4.69314000 -268.8463
     O      7.16081000      6.55693000      5.04677000 -511.0993
