5
cls=0 
     H      4.68655000      4.49139000      3.70992000       nan
     H      4.78345000      5.34330000      5.29008000       nan
     H      3.61894000      3.99358000      5.06789000       nan
     H      5.38106000      3.65670000      5.14204000       nan
     C      4.61781000      4.37123000      4.80183000 -268.6820
