6
cls=0 
     H      3.94444000      3.95206000      5.55372000       nan
     H      4.03073000      5.86808000      3.99413000       nan
     H      4.05556000      7.04794000      5.44628000       nan
     H      3.96927000      5.13192000      7.00587000       nan
     C      4.02285000      6.01679000      5.07937000 -269.1586
     C      3.97715000      4.98321000      5.92063000 -269.1586
