15
cls=0 
     H      4.99864000      7.16715000      4.10569000       nan
     H      5.11434000      8.06231000      5.64194000       nan
     H      3.96626000      6.70750000      5.48908000       nan
     H      5.92801000      4.79017000      3.93174000       nan
     H      6.69059000      4.00535000      5.33390000       nan
     H      4.92266000      4.24353000      5.29980000       nan
     H      5.88364000      3.93769000      7.57071000       nan
     H      7.03374000      6.48813000      5.37044000       nan
     H      6.15888000      7.01037000      7.68978000       nan
     H      5.99755000      5.03955000      9.06826000       nan
     C      4.97291000      7.05986000      5.20337000 -268.8303
     C      6.05418000      6.07521000      5.68877000 -269.4106
     C      5.89076000      4.70053000      5.03047000 -268.7598
     C      6.07018000      6.03057000      7.19991000 -269.0840
     C      5.97979000      4.94758000      7.97829000 -268.7508
