none
     RDKit          3D

  7  6  0  0  0  0  0  0  0  0999 V2000
   -2.3622    0.0001   -0.0004 O   0  0  0  0  0  0  0  0  0  0  0  0
   -1.0011    0.0000    0.0003 C   0  0  0  0  0  0  0  0  0  0  0  0
   -0.3038   -1.2079    0.0001 C   0  0  0  0  0  0  0  0  0  0  0  0
   -2.6772    0.9203   -0.0005 H   0  0  0  0  0  0  0  0  0  0  0  0
   -0.8415   -2.1521    0.0000 H   0  0  0  0  0  0  0  0  0  0  0  0
   -0.4511    0.9526    0.0002 H   0  0  0  0  0  0  0  0  0  0  0  0
    0.7962   -1.2080    0.0000 H   0  0  0  0  0  0  0  0  0  0  0  0
  1  2  1  0
  2  3  2  3
  1  4  1  0
  2  6  1  0
  3  5  1  0
  3  7  1  0
M  END
