none
     RDKit          3D

 10  9  0  0  0  0  0  0  0  0999 V2000
    4.9568    0.5303    0.0027 N   0  0  0  0  0  0  0  0  0  0  0  0
    4.0931   -1.5495   -0.0010 N   0  0  0  0  0  0  0  0  0  0  0  0
    3.0778   -0.6066   -0.0007 C   0  0  0  0  0  0  0  0  0  0  0  0
    2.8870    1.8452    0.0029 N   0  0  0  0  0  0  0  0  0  0  0  0
    3.5884    0.6977    0.0017 C   0  0  0  0  0  0  0  0  0  0  0  0
    5.6433    1.2745    0.0047 H   0  0  0  0  0  0  0  0  0  0  0  0
    5.1289   -0.4548    0.0015 H   0  0  0  0  0  0  0  0  0  0  0  0
    4.9316   -1.0046    0.0006 H   0  0  0  0  0  0  0  0  0  0  0  0
    1.9823   -0.7063   -0.0018 H   0  0  0  0  0  0  0  0  0  0  0  0
    1.9034    1.6646    0.0017 H   0  0  0  0  0  0  0  0  0  0  0  0
  1  5  1  0
  2  3  2  0
  3  5  1  0
  4  5  2  0
  1  6  1  0
  1  7  1  0
  2  8  1  0
  3  9  1  0
  4 10  1  0
M  END