none
     RDKit          3D

 14 13  0  0  0  0  0  0  0  0999 V2000
    5.1951   -0.8333    0.0011 C   0  0  0  0  0  0  0  0  0  0  0  0
    4.0931   -1.5495   -0.0010 N   0  0  0  0  0  0  0  0  0  0  0  0
    3.0778   -0.6066   -0.0007 C   0  0  0  0  0  0  0  0  0  0  0  0
    1.6675   -0.7350   -0.0021 C   0  0  0  0  0  0  0  0  0  0  0  0
    1.0407   -1.9211   -0.0048 N   0  0  0  0  0  0  0  0  0  0  0  0
    2.8870    1.8452    0.0029 N   0  0  0  0  0  0  0  0  0  0  0  0
    3.5884    0.6977    0.0017 C   0  0  0  0  0  0  0  0  0  0  0  0
    6.2059   -1.2370    0.0016 H   0  0  0  0  0  0  0  0  0  0  0  0
    1.6090   -2.7572   -0.0039 H   0  0  0  0  0  0  0  0  0  0  0  0
    0.0140   -1.9758   -0.0029 H   0  0  0  0  0  0  0  0  0  0  0  0
    5.0057    0.2503    0.0024 H   0  0  0  0  0  0  0  0  0  0  0  0
    1.0802    0.1951   -0.0012 H   0  0  0  0  0  0  0  0  0  0  0  0
    1.9034    1.6646    0.0017 H   0  0  0  0  0  0  0  0  0  0  0  0
    4.6803    0.5641    0.0025 H   0  0  0  0  0  0  0  0  0  0  0  0
  1  2  2  0
  2  3  1  0
  3  4  2  0
  3  7  1  0
  4  5  1  0
  6  7  2  0
  1  8  1  0
  1 11  1  0
  4 12  1  0
  5  9  1  0
  5 10  1  0
  6 13  1  0
  7 14  1  0
M  END