none
     RDKit          3D

 14 13  0  0  0  0  0  0  0  0999 V2000
    4.9568    0.5303    0.0027 N   0  0  0  0  0  0  0  0  0  0  0  0
    5.1951   -0.8333    0.0011 C   0  0  0  0  0  0  0  0  0  0  0  0
    4.0931   -1.5495   -0.0010 N   0  0  0  0  0  0  0  0  0  0  0  0
    3.0778   -0.6066   -0.0007 C   0  0  0  0  0  0  0  0  0  0  0  0
    1.6675   -0.7350   -0.0021 C   0  0  0  0  0  0  0  0  0  0  0  0
    0.9437    0.4112   -0.0010 N   0  0  0  0  0  0  0  0  0  0  0  0
    1.5745    1.6042    0.0013 C   0  0  0  0  0  0  0  0  0  0  0  0
    5.6433    1.2745    0.0047 H   0  0  0  0  0  0  0  0  0  0  0  0
    6.2059   -1.2370    0.0016 H   0  0  0  0  0  0  0  0  0  0  0  0
    0.9029    2.4690    0.0020 H   0  0  0  0  0  0  0  0  0  0  0  0
    3.9642    0.6517    0.0020 H   0  0  0  0  0  0  0  0  0  0  0  0
    3.4788    0.4177    0.0012 H   0  0  0  0  0  0  0  0  0  0  0  0
    1.1536   -1.7075   -0.0043 H   0  0  0  0  0  0  0  0  0  0  0  0
    2.6564    1.8029    0.0026 H   0  0  0  0  0  0  0  0  0  0  0  0
  1  2  1  0
  2  3  2  0
  3  4  1  0
  4  5  2  0
  5  6  1  0
  6  7  2  0
  1  8  1  0
  1 11  1  0
  2  9  1  0
  4 12  1  0
  5 13  1  0
  7 10  1  0
  7 14  1  0
M  END