none
     RDKit          3D

 19 18  0  0  0  0  0  0  0  0999 V2000
    1.6511    0.9854   -1.0564 C   0  0  0  0  0  0  0  0  0  0  0  0
    1.1812   -0.0063    0.0220 C   0  0  0  0  0  0  0  0  0  0  0  0
    1.8290   -1.3854   -0.1646 C   0  0  0  0  0  0  0  0  0  0  0  0
   -0.3194   -0.1263    0.0008 C   0  0  0  0  0  0  0  0  0  0  0  0
   -1.1819   -1.1862   -0.0462 C   0  0  0  0  0  0  0  0  0  0  0  0
   -2.5092   -0.6362   -0.0394 C   0  0  0  0  0  0  0  0  0  0  0  0
   -2.3526    0.7174    0.0105 C   0  0  0  0  0  0  0  0  0  0  0  0
    2.7466    1.1147   -1.0033 H   0  0  0  0  0  0  0  0  0  0  0  0
    1.1731    1.9632   -0.9022 H   0  0  0  0  0  0  0  0  0  0  0  0
    1.4013    0.6255   -2.0676 H   0  0  0  0  0  0  0  0  0  0  0  0
    2.9258   -1.2899   -0.0949 H   0  0  0  0  0  0  0  0  0  0  0  0
    1.5009   -2.0717    0.6302 H   0  0  0  0  0  0  0  0  0  0  0  0
    1.5855   -1.8257   -1.1446 H   0  0  0  0  0  0  0  0  0  0  0  0
   -0.9078   -2.2373   -0.0787 H   0  0  0  0  0  0  0  0  0  0  0  0
   -3.4488   -1.1826   -0.0669 H   0  0  0  0  0  0  0  0  0  0  0  0
   -3.0462    1.5526    0.0370 H   0  0  0  0  0  0  0  0  0  0  0  0
    1.4316    0.3833    1.0197 H   0  0  0  0  0  0  0  0  0  0  0  0
   -0.8899    0.8138    0.0270 H   0  0  0  0  0  0  0  0  0  0  0  0
   -1.2848    0.9809    0.0290 H   0  0  0  0  0  0  0  0  0  0  0  0
  1  2  1  0
  2  3  1  0
  2  4  1  0
  4  5  2  0
  5  6  1  0
  6  7  2  0
  1  8  1  0
  1  9  1  0
  1 10  1  0
  2 17  1  0
  3 11  1  0
  3 12  1  0
  3 13  1  0
  4 18  1  0
  5 14  1  0
  6 15  1  0
  7 16  1  0
  7 19  1  0
M  END