none
     RDKit          3D

 10  9  0  0  0  0  0  0  0  0999 V2000
   -0.3194   -0.1263    0.0008 C   0  0  0  0  0  0  0  0  0  0  0  0
   -1.1819   -1.1862   -0.0462 C   0  0  0  0  0  0  0  0  0  0  0  0
   -2.5092   -0.6362   -0.0394 C   0  0  0  0  0  0  0  0  0  0  0  0
   -2.3526    0.7174    0.0105 C   0  0  0  0  0  0  0  0  0  0  0  0
   -0.9078   -2.2373   -0.0787 H   0  0  0  0  0  0  0  0  0  0  0  0
   -3.4488   -1.1826   -0.0669 H   0  0  0  0  0  0  0  0  0  0  0  0
   -3.0462    1.5526    0.0370 H   0  0  0  0  0  0  0  0  0  0  0  0
    0.7770   -0.0386    0.0163 H   0  0  0  0  0  0  0  0  0  0  0  0
   -0.8899    0.8138    0.0270 H   0  0  0  0  0  0  0  0  0  0  0  0
   -1.2848    0.9809    0.0290 H   0  0  0  0  0  0  0  0  0  0  0  0
  1  2  2  0
  2  3  1  0
  3  4  2  0
  1  8  1  0
  1  9  1  0
  2  5  1  0
  3  6  1  0
  4  7  1  0
  4 10  1  0
M  END