none
     RDKit          3D

 13 12  0  0  0  0  0  0  0  0999 V2000
    1.1812   -0.0063    0.0220 C   0  0  0  0  0  0  0  0  0  0  0  0
   -0.3194   -0.1263    0.0008 C   0  0  0  0  0  0  0  0  0  0  0  0
   -1.1819   -1.1862   -0.0462 C   0  0  0  0  0  0  0  0  0  0  0  0
   -2.5092   -0.6362   -0.0394 C   0  0  0  0  0  0  0  0  0  0  0  0
   -2.3526    0.7174    0.0105 C   0  0  0  0  0  0  0  0  0  0  0  0
   -0.9078   -2.2373   -0.0787 H   0  0  0  0  0  0  0  0  0  0  0  0
   -3.4488   -1.1826   -0.0669 H   0  0  0  0  0  0  0  0  0  0  0  0
   -3.0462    1.5526    0.0370 H   0  0  0  0  0  0  0  0  0  0  0  0
    1.5172    0.7027   -0.7490 H   0  0  0  0  0  0  0  0  0  0  0  0
    1.6454   -0.9945   -0.1117 H   0  0  0  0  0  0  0  0  0  0  0  0
    1.4316    0.3833    1.0197 H   0  0  0  0  0  0  0  0  0  0  0  0
   -0.8899    0.8138    0.0270 H   0  0  0  0  0  0  0  0  0  0  0  0
   -1.2848    0.9809    0.0290 H   0  0  0  0  0  0  0  0  0  0  0  0
  1  2  1  0
  2  3  2  0
  3  4  1  0
  4  5  2  0
  1  9  1  0
  1 10  1  0
  1 11  1  0
  2 12  1  0
  3  6  1  0
  4  7  1  0
  5  8  1  0
  5 13  1  0
M  END