8

C       1.014852085600000      0.181659882400000     -0.063197009100000
C       2.018985097300000     -0.835017540200000      0.541087280700000
H       1.362382150800000      1.213983109900000      0.095603570000000
H       0.024399051100000      0.076757900900000      0.405533912500000
H       0.901134527000000      0.020326064100000     -1.146121427300000
H       2.132703537200000     -0.673683888100000      1.624011601400000
H       1.671455888200000     -1.867341012400000      0.382286592500000
H       3.009437662900000     -0.730114516500000      0.072355479300000
