6

C       1.349857898300000      1.024672534100000     -0.576745608300000
C       2.533712058600000      0.667220866700000     -0.079684374000000
H       0.407686756200000      0.771998110700000     -0.074538490000000
H       1.258432982500000      1.589429894400000     -1.512925800700000
H       3.475883194200000      0.919895174700000     -0.581891500200000
H       2.625137110300000      0.102463419600000      0.856495773100000
