14

C       1.318305779800000      1.042810053900000     -0.604383968300000
C       2.495955467100000      0.663942079100000     -0.071000251800000
C       2.626353056300000     -0.097746192800000      1.191017550800000
C       3.816615404500000     -0.478196705000000      1.725976788600000
C       3.947013083600000     -1.239884929400000      2.987994610600000
C       5.124662842500000     -1.618752867000000      3.521378202100000
H       0.363192523300000      0.802407549700000     -0.121597009300000
H       1.263169132800000      1.606998296900000     -1.542684661300000
H       3.436327092300000      0.921442163000000     -0.581114109400000
H       1.690836095500000     -0.359354518500000      1.707586151900000
H       4.752132351200000     -0.216588369400000      1.209408170100000
H       3.006641513300000     -1.497385103500000      3.498108522700000
H       6.079776031200000     -1.378350325300000      3.038591130800000
H       5.179799624800000     -2.182941159900000      4.459678855600000
