23

C       0.373652651800000     -1.427292162700000     -2.264292427700000
C       0.810216194400000     -2.788492204600000     -1.649830163200000
C       2.086262649700000     -2.656545310900000     -0.760717490100000
C       2.523985460200000     -4.021997123100000     -0.144482912000000
C       3.799941354700000     -3.889472677500000      0.744437097000000
C       4.238163605100000     -5.254771423600000      1.360997296300000
C       5.510233125400000     -5.122868573900000      2.247257940400000
H       0.148033663100000     -0.697535514900000     -1.471594306400000
H      -0.527077832600000     -1.553076016700000     -2.884693238500000
H       1.173385384500000     -1.011911750900000     -2.896515234200000
H      -0.015740790600000     -3.197261483900000     -1.041797074500000
H       1.006063994800000     -3.510550302100000     -2.461789053200000
H       1.890981016700000     -1.935033871200000      0.051885578300000
H       2.912892556100000     -2.248355473100000     -1.368254745600000
H       2.718992437700000     -4.743303908200000     -0.957355020700000
H       1.697056817300000     -4.429974873100000      0.462818867600000
H       3.605234801300000     -3.168374963000000      1.557545257600000
H       4.627146294700000     -3.481696573800000      0.137404903700000
H       4.432103696000000     -5.975457005600000      0.547362828900000
H       3.410298901800000     -5.662168159400000      1.967354796600000
H       6.357505283800000     -4.741691185100000      1.656789740400000
H       5.332153664800000     -4.427314571700000      3.081710659500000
H       5.793515054500000     -6.100504865000000      2.666796711400000
