26

C       0.376965555100000     -1.427775808700000     -2.261799507500000
C       0.813481630100000     -2.788976858500000     -1.647371766200000
C       2.089392827200000     -2.658394358400000     -0.758055735900000
C       2.526219246900000     -4.024351753800000     -0.142355297800000
C       3.802131517700000     -3.893657472300000      0.746936843300000
C       4.238957937300000     -5.259614867600000      1.362637281300000
C       5.514869134400000     -5.129032367500000      2.251953311700000
C       5.951385209400000     -6.490233417400000      2.866381053000000
H       0.150909478900000     -0.697842088400000     -1.469407500000000
H      -0.523772118200000     -1.554053657300000     -2.882096173200000
H       1.176304422700000     -1.012231334400000     -2.894389298600000
H      -0.013021718800000     -3.197449604200000     -1.039820819900000
H       1.008761251200000     -3.510731407900000     -2.459783092000000
H       1.894481745000000     -1.937148346300000      0.054903727500000
H       2.916421584000000     -2.250478246500000     -1.365276544200000
H       2.720710503300000     -4.745319636100000     -0.955683057000000
H       1.698766224300000     -4.431988374500000      0.464503384900000
H       3.607640261200000     -3.172689590000000      1.560264602500000
H       4.629584540300000     -3.486020851500000      0.140078160500000
H       4.433869019600000     -5.980860879800000      0.549677818000000
H       3.411929180500000     -5.667530979600000      1.969858089600000
H       6.341372483300000     -4.720559621900000      1.644402365300000
H       5.319589513400000     -4.407277818200000      3.064364637500000
H       6.177441285600000     -7.220167137600000      2.073989045500000
H       6.852122882700000     -6.363955568800000      3.486677718700000
H       5.152046341800000     -6.905777891700000      3.498970844100000
