26

C       1.099394636000000     -0.280556439400000     -0.283573961500000
C       1.709808157800000      0.537863407400000     -1.164673627400000
C       3.171663883000000      0.729490338100000     -1.239389864500000
C       3.783835476700000      1.559273706500000     -2.133393516300000
C       5.234603169100000      1.752511897000000     -2.211070536100000
C       5.846692674300000      2.584992431800000     -3.108186809400000
C       7.295200408100000      2.778546781000000     -3.186453197800000
C       7.907289913300000      3.611027315800000     -4.083569471100000
C       9.358057605600001      3.804265506300000     -4.161246490900000
C       9.970229199400000      4.634048874700000     -5.055250142700000
C      11.432084924500000      4.825675805400000     -5.129966379800000
C      12.042498446300000      5.644095652200000     -6.011066045700000
H       1.668836690700000     -0.866770978100000      0.447969372000000
H       0.009436760300000     -0.395216203400000     -0.260343373100000
H       1.107565252600000      1.111579236400000     -1.885103440700000
H       3.782747559700000      0.160270262400000     -0.523252629100000
H       3.169240022800000      2.126880899600000     -2.848024689700000
H       5.850520177800000      1.185640053400000     -1.497153899900000
H       5.230087034600000      3.151545820800000     -3.821805608300000
H       7.911806047700000      2.211993392000000     -2.472834398900000
H       7.291372904500000      4.177899159400000     -4.797486107300000
H       9.972653059600001      3.236658313200000     -3.446615317500000
H       9.359145522600000      5.203268950400000     -5.771387378100000
H      12.034327829800000      4.251959976400000     -4.409536566600000
H      13.132456322099999      5.758755416200000     -6.034296634100000
H      11.473056391700000      6.230310190900000     -6.742609379200000
