34

C       1.126478753300000     -0.388058283600000     -0.157095101900000
C       1.700475001900000      0.440397929700000     -1.053382178200000
C       3.155874055600000      0.660606801600000     -1.161658382400000
C       3.730926137900000      1.500726818700000     -2.071265067900000
C       5.174415026700000      1.722598049400000     -2.182642721700000
C       5.749075648500000      2.565947749400000     -3.096005792900000
C       7.188860372800000      2.788386104800000     -3.208405708100000
C       7.763434984100000      3.632812823300000     -4.123016997700000
C       9.202262661100001      3.855414238000000     -4.235700062300000
C       9.776837273200000      4.699840956400000     -5.150311351800000
C      11.216621998200001      4.922279310800000     -5.262711265800000
C      11.791282621800001      5.765629010400000     -6.176074336500000
C      13.234771510700000      5.987500240000000     -6.287451988800000
C      13.809823593599999      6.827620256500000     -7.197058673600000
C      15.265222645700000      7.047829129600000     -7.305334879400000
C      15.839218891300000      7.876285343000000     -8.201621956200000
H       0.039822869000000     -0.524154927800000     -0.108847642500000
H       1.723962278900000     -0.961281132500000      0.562280743800000
H       1.070836988800000      1.000567108200000     -1.760940913300000
H       3.794509503600000      0.105288688900000     -0.458785667300000
H       3.088554960700000      2.054221363300000     -2.772411546600000
H       5.818382390700000      1.170034587700000     -1.482408684600000
H       5.103948294000000      3.117936838200000     -3.795694423900000
H       7.834526825400000      2.236703161900000     -2.509015629100000
H       7.117459839200000      4.184341536100000     -4.822260332900000
H       9.848237805400000      3.303885535900000     -3.536456717100000
H       9.131170820900000      5.251523909300000     -5.849701422500000
H      11.861749350900000      4.370290231700000     -4.563022624200000
H      11.147315258800001      6.318192472100000     -6.876308373400000
H      13.877142686399999      5.434005694400000     -5.586305509100000
H      13.171188146300000      7.382938358700000     -7.899931395700000
H      15.894860661799999      6.487659953000000     -6.597776146100000
H      15.241735365000000      8.449508191000000     -8.920997800900000
H      16.925874775499999      8.012381977800000     -8.249869427200000
