56

C      -0.091669570000000     -0.983613260000000     -2.642159340000000
C       0.323675380000000     -2.359294350000000     -2.045473590000000
C       1.607707840000000     -2.260698990000000     -1.163554420000000
C       2.024062940000000     -3.640746870000000     -0.565191540000000
C       3.308112680000000     -3.541627490000000      0.316623740000000
C       3.724650080000000     -4.921708180000000      0.915121790000000
C       5.008739790000000     -4.822359310000000      1.796914750000000
C       5.425414490000000     -6.202368300000000      2.395493290000000
C       6.709511360000000     -6.102914220000000      3.277268630000000
C       7.126230510000000     -7.482899200000000      3.875872930000000
C       8.410326919999999     -7.383447560000000      4.757649230000000
C       8.826997830000000     -8.763458809999999      5.356225140000000
C      10.111086280000000     -8.664117050000000      6.238020790000000
C      10.527616510000000    -10.044202090000001      6.836513700000000
C      11.811664499999999     -9.945093920000000      7.718332900000000
C      12.228009719999999    -11.325147919999999      8.316688400000000
C      13.512040300000001    -11.226567250000000      9.198612060000000
C      13.927373100000001    -12.602255840000000      9.795288970000000
H      -0.998592310000000     -1.085979820000000     -3.257826910000000
H       0.711455130000000     -0.576086630000000     -3.275192460000000
H      -0.298610610000000     -0.258583370000000     -1.840083750000000
H       0.500826100000000     -3.075845690000000     -2.866551730000000
H      -0.505738220000000     -2.759441710000000     -1.436414730000000
H       1.431114430000000     -1.544716520000000     -0.341836420000000
H       2.437789720000000     -1.861155500000000     -1.772131170000000
H       2.200350960000000     -4.356479920000000     -1.387204640000000
H       1.193652940000000     -4.040033820000000      0.043122520000000
H       3.131769460000000     -2.825859990000000      1.138585560000000
H       4.138463000000000     -3.142304370000000     -0.291735280000000
H       3.901019890000000     -5.637482860000000      0.093171290000000
H       2.894318050000000     -5.321036130000000      1.523503470000000
H       4.832344890000000     -4.106556320000000      2.618835190000000
H       5.839041070000000     -4.423001010000000      1.188511090000000
H       5.601823340000000     -6.918176580000000      1.573580380000000
H       4.595123770000000     -6.601731210000000      3.003908460000000
H       6.533094960000000     -5.387097200000000      4.099172370000000
H       7.539792750000000     -5.703541750000000      2.668846940000000
H       7.302646920000000     -8.198715829999999      3.053968870000000
H       6.295948640000000     -7.882271570000000      4.484294000000000
H       8.233918590000000     -6.667640400000000      5.579563250000000
H       9.240618830000001     -6.984084980000000      4.149235450000000
H       9.003392160000001     -9.479259960000000      4.534302980000000
H       7.996694460000000     -9.162816590000000      5.964626300000000
H       9.934717500000000     -7.948344940000000      7.059973760000000
H      10.941420969999999     -8.264789790000000      5.629642290000000
H      10.703958480000001    -10.759966420000000      6.014548860000000
H       9.697262840000000    -10.443524300000000      7.444868730000000
H      11.635378129999999     -9.229364690000001      8.540349680000000
H      12.642078280000000     -9.545807950000000      7.110023370000000
H      12.404600990000000    -12.041126170000000      7.494966280000000
H      11.397923600000000    -11.724690140000000      8.925260200000000
H      13.334892170000000    -10.510020470000001     10.019694740000000
H      14.341458550000000    -10.826421470000000      8.589558490000000
H      13.124243699999999    -13.009780429999999     10.428317460000001
H      14.834295420000000    -12.499901299999999     10.410959150000000
H      14.134309780000001    -13.327281599999999      8.993208530000000
