62

C      -0.478356472300000      1.137726018600000      1.706626258800000
C      -0.793792144600000     -0.257772965000000      1.170999387500000
H      -1.602808864300000     -0.182462073400000      0.424986359800000
C       0.384372669500000     -0.996058111100000      0.513675382500000
H      -0.036339080200000     -1.933402416300000      0.109298776100000
C       1.022973171000000     -0.271725984100000     -0.679796100300000
N       1.881341662300000      0.871523556900000     -0.376388160500000
C       1.372688471000000      1.999950661900000      0.158556775400000
N       2.048884716800000      3.101627620300000      0.369022645300000
C       1.083801110800000      3.966899292000000      0.919948733100000
N      -0.127161485300000      3.521479140500000      1.110472156200000
C      -0.079140685000000      2.152413125400000      0.618833924300000
N       1.487472394400000      5.239594704300000      1.186671343800000
C       0.636488127600000      6.189771318900000      1.879512292500000
C       0.572058637000000      5.988810617800000      3.402403809100000
C      -0.376453898500000      6.991878930600000      4.071134241000000
C      -0.567858831300000      6.805196641000000      5.598401629300000
H      -0.854256416500000      5.766187945600000      5.795153444800000
C       0.746864858500000      7.083579128000000      6.313340595700000
O       1.172291787400000      8.193968631100001      6.549515144600000
O       1.425968922500000      5.957539451500000      6.630216329800000
N      -1.568041180700000      7.688836757000000      6.202977867100000
C       3.286216461500000      0.820201105600000     -0.814710724000000
C       4.181900720500000     -0.078407604100000      0.053216906800000
C       4.390782711600000      0.391283733500000      1.503150539600000
C       5.055243693800000      1.764593311100000      1.715842768900000
C       6.558930912500000      1.878011893500000      1.374073144100000
H       7.107945471500000      1.053996963900000      1.842577564300000
C       6.809752987600000      1.825466496700000     -0.127464448300000
O       6.379623161500000      2.636924813600000     -0.919845085100000
O       7.583028150200000      0.780153034500000     -0.504354744000000
N       7.181563930200000      3.139335722800000      1.812386851600000
O       1.387839358700000     -1.287059595700000      1.469432716000000
O      -1.192629472000000     -1.139740076200000      2.230467119000000
H       0.313587680300000      1.073329766300000      2.461067200100000
H      -1.371599175500000      1.539628060900000      2.202941187500000
H       0.221770675100000      0.022053597000000     -1.375240344700000
H       1.648571977000000     -0.995429715400000     -1.206862210200000
H      -0.760706122600000      2.032769880100000     -0.241949429000000
H       2.484635074400000      5.392476198400000      1.156743273200000
H      -0.368276048700000      6.089541594300000      1.455826325900000
H       0.995496798000000      7.199200331500000      1.643894210000000
H       1.582269870600000      6.077292806000000      3.823705440600000
H       0.233373926900000      4.964372417300000      3.597641902200000
H      -1.371570409500000      6.906037547900000      3.611622769700000
H      -0.034721106400000      8.021574814099999      3.893990495000000
H       2.257130884500000      6.252564666400000      7.050235321200000
H      -2.420318875300000      7.669362725400000      5.645360852900000
H      -1.212953878200000      8.644197571299999      6.177556343900000
H       3.654770798900000      1.846489793500000     -0.836016299500000
H       3.297838144200000      0.448616387300000     -1.848311729200000
H       5.144111701800000     -0.180805190800000     -0.463762386900000
H       3.749235930000000     -1.085806359200000      0.090181005100000
H       4.980490636300000     -0.375832680500000      2.025462382400000
H       3.412190398600000      0.401237424400000      1.995402971800000
H       4.971396445900000      2.010848610800000      2.784240156900000
H       4.503962566500000      2.545075264500000      1.178084622500000
H       7.695367608800000      0.863285362900000     -1.471262174100000
H       7.007264600300000      3.265600417300000      2.808679435700000
H       6.713058492400000      3.908619173900000      1.333373378800000
H       0.904215529000000     -1.607555320400000      2.251744577000000
H      -1.787329680800000     -0.653456936000000      2.822085276400000
