none
     RDKit          3D

 11 10  0  0  0  0  0  0  0  0999 V2000
   -2.2906   -0.0708   -0.0124 O   0  0  0  0  0  0  0  0  0  0  0  0
   -0.9251    0.1037   -0.0037 C   0  0  0  0  0  0  0  0  0  0  0  0
   -0.3807    1.3260   -0.0016 C   0  0  0  0  0  0  0  0  0  0  0  0
   -0.2082   -1.1513    0.0015 C   0  0  0  0  0  0  0  0  0  0  0  0
    1.1194   -1.3303    0.0095 C   0  0  0  0  0  0  0  0  0  0  0  0
   -2.7109    0.8046   -0.0158 H   0  0  0  0  0  0  0  0  0  0  0  0
   -0.9894    2.2230   -0.0063 H   0  0  0  0  0  0  0  0  0  0  0  0
   -0.8413   -2.0384   -0.0015 H   0  0  0  0  0  0  0  0  0  0  0  0
    1.5320   -2.3345    0.0127 H   0  0  0  0  0  0  0  0  0  0  0  0
    0.6927    1.4782    0.0048 H   0  0  0  0  0  0  0  0  0  0  0  0
    1.8261   -0.5092    0.0130 H   0  0  0  0  0  0  0  0  0  0  0  0
  1  2  1  0
  2  3  2  3
  2  4  1  0
  4  5  2  3
  1  6  1  0
  3  7  1  0
  3 10  1  0
  4  8  1  0
  5  9  1  0
  5 11  1  0
M  END
