none
     RDKit          3D

 10  9  0  0  0  0  0  0  0  0999 V2000
   -0.3398   -1.3387   -0.0181 C   0  0  0  0  0  0  0  0  0  0  0  0
    1.1885    1.3040    0.0232 C   0  0  0  0  0  0  0  0  0  0  0  0
    0.9891   -1.1788   -0.0134 C   0  0  0  0  0  0  0  0  0  0  0  0
    1.7128    0.0726    0.0061 C   0  0  0  0  0  0  0  0  0  0  0  0
   -0.7706   -2.3351   -0.0333 H   0  0  0  0  0  0  0  0  0  0  0  0
    1.8373    2.1744    0.0369 H   0  0  0  0  0  0  0  0  0  0  0  0
    1.6153   -2.0703   -0.0252 H   0  0  0  0  0  0  0  0  0  0  0  0
    2.7979   -0.0254    0.0064 H   0  0  0  0  0  0  0  0  0  0  0  0
   -1.0327   -0.5053   -0.0072 H   0  0  0  0  0  0  0  0  0  0  0  0
    0.1205    1.4888    0.0241 H   0  0  0  0  0  0  0  0  0  0  0  0
  1  3  2  3
  2  4  2  3
  3  4  1  0
  1  5  1  0
  1  9  1  0
  2  6  1  0
  2 10  1  0
  3  7  1  0
  4  8  1  0
M  END
