none
     RDKit          3D

  7  6  0  0  0  0  0  0  0  0999 V2000
   -2.3644   -0.0141   -0.0005 O   0  0  0  0  0  0  0  0  0  0  0  0
   -1.0014    0.0520    0.0002 C   0  0  0  0  0  0  0  0  0  0  0  0
   -0.3012    1.1868    0.0003 C   0  0  0  0  0  0  0  0  0  0  0  0
   -2.7205    0.8912   -0.0009 H   0  0  0  0  0  0  0  0  0  0  0  0
   -0.7753    2.1613   -0.0003 H   0  0  0  0  0  0  0  0  0  0  0  0
   -0.5551   -0.9354    0.0007 H   0  0  0  0  0  0  0  0  0  0  0  0
    0.7840    1.1580    0.0008 H   0  0  0  0  0  0  0  0  0  0  0  0
  1  2  1  0
  2  3  2  3
  1  4  1  0
  2  6  1  0
  3  5  1  0
  3  7  1  0
M  END
