none
     RDKit          3D

  6  5  0  0  0  0  0  0  0  0999 V2000
   -0.9863    0.0256    0.0003 C   0  0  0  0  0  0  0  0  0  0  0  0
   -0.3185    1.1824    0.0002 C   0  0  0  0  0  0  0  0  0  0  0  0
   -0.8440    2.1323    0.0005 H   0  0  0  0  0  0  0  0  0  0  0  0
   -2.0716    0.0056    0.0005 H   0  0  0  0  0  0  0  0  0  0  0  0
   -0.4608   -0.9243    0.0000 H   0  0  0  0  0  0  0  0  0  0  0  0
    0.7668    1.2024    0.0000 H   0  0  0  0  0  0  0  0  0  0  0  0
  1  2  2  3
  1  4  1  0
  1  5  1  0
  2  3  1  0
  2  6  1  0
M  END
