none
     RDKit          3D

 11 10  0  0  0  0  0  0  0  0999 V2000
   -2.4692   -0.0932    0.0062 O   0  0  0  0  0  0  0  0  0  0  0  0
   -1.1036    0.0067    0.0050 C   0  0  0  0  0  0  0  0  0  0  0  0
   -0.3205   -1.0752   -0.0042 C   0  0  0  0  0  0  0  0  0  0  0  0
    1.1251   -1.1020   -0.0072 C   0  0  0  0  0  0  0  0  0  0  0  0
    1.9495   -0.0474   -0.0016 C   0  0  0  0  0  0  0  0  0  0  0  0
   -2.8378    0.8077    0.0134 H   0  0  0  0  0  0  0  0  0  0  0  0
   -0.8009   -2.0526   -0.0105 H   0  0  0  0  0  0  0  0  0  0  0  0
    1.5624   -2.0999   -0.0149 H   0  0  0  0  0  0  0  0  0  0  0  0
    3.0252   -0.1959   -0.0048 H   0  0  0  0  0  0  0  0  0  0  0  0
   -0.7476    1.0281    0.0118 H   0  0  0  0  0  0  0  0  0  0  0  0
    1.5965    0.9772    0.0061 H   0  0  0  0  0  0  0  0  0  0  0  0
  1  2  1  0
  2  3  2  0
  3  4  1  0
  4  5  2  0
  1  6  1  0
  2 10  1  0
  3  7  1  0
  4  8  1  0
  5  9  1  0
  5 11  1  0
M  END
