ase
 OpenBabel01091723363D

  3  2  0  0  0  0  0  0  0  0999 V2000
    0.0000    0.1034    0.0000 S   0  0  0  0  0  0  0  0  0  0  0  0
    0.9748   -0.8274    0.0000 H   0  0  0  0  0  0  0  0  0  0  0  0
   -0.9748   -0.8274    0.0000 H   0  0  0  0  0  0  0  0  0  0  0  0
  1  2  1  0  0  0  0
  1  3  1  0  0  0  0
M  END
$$$$
