none
     RDKit          3D

  7  6  0  0  0  0  0  0  0  0999 V2000
   -2.5125   -0.8135   -0.9420 O   0  0  0  0  0  0  0  0  0  0  0  0
   -1.5460    0.7312    0.6713 C   0  0  0  0  0  0  0  0  0  0  0  0
   -2.6526    0.0738   -0.1367 C   0  0  0  0  0  0  0  0  0  0  0  0
   -1.7869    0.5038    1.7305 H   0  0  0  0  0  0  0  0  0  0  0  0
   -1.6877    1.8237    0.5793 H   0  0  0  0  0  0  0  0  0  0  0  0
   -3.6707    0.4904    0.0972 H   0  0  0  0  0  0  0  0  0  0  0  0
   -0.5118    0.4461    0.4282 H   0  0  0  0  0  0  0  0  0  0  0  0
  1  3  2  0
  2  3  1  0
  2  4  1  0
  2  5  1  0
  2  7  1  0
  3  6  1  0
M  END
