none
     RDKit          3D

  9  8  0  0  0  0  0  0  0  0999 V2000
    0.3225   -0.9785    0.5174 C   0  0  0  0  0  0  0  0  0  0  0  0
   -0.1266    0.3399    0.3376 C   0  0  0  0  0  0  0  0  0  0  0  0
   -1.5460    0.7312    0.6713 C   0  0  0  0  0  0  0  0  0  0  0  0
   -0.3721   -1.7404    0.8772 H   0  0  0  0  0  0  0  0  0  0  0  0
   -1.7869    0.5038    1.7305 H   0  0  0  0  0  0  0  0  0  0  0  0
   -1.6877    1.8237    0.5793 H   0  0  0  0  0  0  0  0  0  0  0  0
    1.3660   -1.2506    0.3004 H   0  0  0  0  0  0  0  0  0  0  0  0
    0.5852    1.0907   -0.0361 H   0  0  0  0  0  0  0  0  0  0  0  0
   -2.3470    0.2554    0.0865 H   0  0  0  0  0  0  0  0  0  0  0  0
  1  2  2  3
  2  3  1  0
  1  4  1  0
  1  7  1  0
  2  8  1  0
  3  5  1  0
  3  6  1  0
  3  9  1  0
M  END
