none
     RDKit          3D

 15 14  0  0  0  0  0  0  0  0999 V2000
    0.7807    1.2970   -0.1388 C   0  0  0  0  0  0  0  0  0  0  0  0
    1.6475   -1.3240    0.2419 C   0  0  0  0  0  0  0  0  0  0  0  0
    0.3225   -0.9785    0.5174 C   0  0  0  0  0  0  0  0  0  0  0  0
   -0.1266    0.3399    0.3376 C   0  0  0  0  0  0  0  0  0  0  0  0
   -1.5460    0.7312    0.6713 C   0  0  0  0  0  0  0  0  0  0  0  0
   -2.6526    0.0738   -0.1367 C   0  0  0  0  0  0  0  0  0  0  0  0
   -2.5125   -0.8135   -0.9420 O   0  0  0  0  0  0  0  0  0  0  0  0
    0.4444    2.3257   -0.2969 H   0  0  0  0  0  0  0  0  0  0  0  0
    1.9841   -2.3521    0.3967 H   0  0  0  0  0  0  0  0  0  0  0  0
   -0.3721   -1.7404    0.8772 H   0  0  0  0  0  0  0  0  0  0  0  0
   -1.7869    0.5038    1.7305 H   0  0  0  0  0  0  0  0  0  0  0  0
   -1.6877    1.8237    0.5793 H   0  0  0  0  0  0  0  0  0  0  0  0
   -3.6707    0.4904    0.0972 H   0  0  0  0  0  0  0  0  0  0  0  0
    1.8246    1.0275   -0.3571 H   0  0  0  0  0  0  0  0  0  0  0  0
    2.3545   -0.5644   -0.1231 H   0  0  0  0  0  0  0  0  0  0  0  0
  1  4  2  3
  2  3  2  3
  3  4  1  0
  4  5  1  0
  5  6  1  0
  6  7  2  0
  1  8  1  0
  1 14  1  0
  2  9  1  0
  2 15  1  0
  3 10  1  0
  5 11  1  0
  5 12  1  0
  6 13  1  0
M  END
