none
     RDKit          3D

  5  4  0  0  0  0  0  0  0  0999 V2000
   -1.5460    0.7312    0.6713 C   0  0  0  0  0  0  0  0  0  0  0  0
   -1.7869    0.5038    1.7305 H   0  0  0  0  0  0  0  0  0  0  0  0
   -1.6877    1.8237    0.5793 H   0  0  0  0  0  0  0  0  0  0  0  0
   -0.5118    0.4461    0.4282 H   0  0  0  0  0  0  0  0  0  0  0  0
   -2.3470    0.2554    0.0865 H   0  0  0  0  0  0  0  0  0  0  0  0
  1  2  1  0
  1  3  1  0
  1  4  1  0
  1  5  1  0
M  END
